.SUBCKT TL072 OUT1 IN1- IN1+ VEE IN2- IN2+ OUT2 VCC
.include TL071.cir
X1 IN1+ IN1- VCC VEE OUT1 TL071
X2 IN2+ IN2- VCC VEE OUT2 TL071
.ENDS TL072
