Version 4
SHEET 1 4932 2052
WIRE -656 -464 -656 -496
WIRE -768 -384 -768 -416
WIRE -656 -368 -656 -384
WIRE -512 -368 -656 -368
WIRE -496 -368 -512 -368
WIRE -656 -352 -656 -368
WIRE -768 -272 -768 -304
WIRE -656 -240 -656 -272
WIRE 2848 176 2784 176
WIRE 2976 176 2976 144
WIRE 2976 176 2928 176
WIRE 1232 192 1056 192
WIRE -576 208 -608 208
WIRE -448 208 -576 208
WIRE -80 208 -112 208
WIRE -16 208 -80 208
WIRE 2976 224 2976 176
WIRE 1056 256 1056 192
WIRE 1104 256 1056 256
WIRE -608 272 -608 208
WIRE -112 272 -112 208
WIRE 80 272 80 208
WIRE 1232 272 1232 192
WIRE 1232 272 1168 272
WIRE 1296 272 1232 272
WIRE 1424 272 1376 272
WIRE 1600 272 1488 272
WIRE 2656 272 1600 272
WIRE 2784 272 2784 176
WIRE 2784 272 2720 272
WIRE 2912 272 2784 272
WIRE 848 288 816 288
WIRE 960 288 848 288
WIRE 1056 288 1024 288
WIRE 1104 288 1056 288
WIRE 1600 336 1600 272
WIRE 2976 352 2976 320
WIRE 3072 352 2976 352
WIRE 3200 352 3136 352
WIRE 2976 384 2976 352
WIRE -608 400 -608 352
WIRE -112 400 -112 352
WIRE 80 400 80 352
WIRE 1600 416 1600 400
WIRE 1824 416 1600 416
WIRE 3200 416 3200 352
WIRE 1600 432 1600 416
WIRE 1824 448 1824 416
WIRE 2784 448 2784 416
WIRE 2784 448 2608 448
WIRE 1056 464 1056 288
WIRE 1552 496 1312 496
WIRE 2608 512 2608 448
WIRE 2656 512 2608 512
WIRE 2976 512 2976 464
WIRE 2784 528 2784 448
WIRE 2784 528 2720 528
WIRE 2608 544 2576 544
WIRE 2656 544 2608 544
WIRE 3200 544 3200 496
WIRE 1600 560 1600 528
WIRE 1728 560 1600 560
WIRE 1824 560 1824 528
WIRE 1824 560 1728 560
WIRE 1888 560 1824 560
WIRE 1600 608 1600 560
WIRE 1728 608 1728 560
WIRE 1824 608 1824 560
WIRE 1600 704 1600 672
WIRE 1728 720 1728 688
WIRE 1824 720 1824 688
WIRE 1312 880 1312 496
WIRE 1584 880 1312 880
WIRE 1056 1040 1056 544
WIRE 1456 1040 1056 1040
WIRE 1584 1056 1584 880
WIRE 1584 1056 1520 1056
WIRE 1696 1056 1584 1056
WIRE 1856 1056 1776 1056
WIRE 1456 1072 1360 1072
WIRE 1056 1136 1056 1040
WIRE 1360 1136 1360 1072
WIRE 1056 1296 1056 1216
WIRE 1360 1296 1360 1216
FLAG -768 -416 9V
FLAG -768 -272 0
FLAG -656 -496 9V
FLAG -656 -240 0
FLAG -512 -368 4.5V
FLAG -608 400 0
FLAG 80 400 0
FLAG 80 208 mult
FLAG -112 400 0
FLAG -576 208 sine
FLAG -80 208 input
FLAG 848 288 input
FLAG 1136 240 9V
FLAG 1136 304 0
FLAG 1360 1296 0
FLAG 1056 1296 0
FLAG 1488 1024 9V
FLAG 1488 1088 0
FLAG 2688 496 9V
FLAG 2688 560 0
FLAG 2608 544 4.5V
FLAG 2976 512 0
FLAG 2976 144 9V
FLAG 3200 544 0
FLAG 1856 1056 9V
FLAG 1600 704 0
FLAG 1824 720 0
FLAG 1728 720 0
SYMBOL voltage -608 256 R0
WINDOW 123 0 0 Left 0
WINDOW 39 0 0 Left 0
SYMATTR InstName V1
SYMATTR Value SINE(0 200m 3k)
SYMBOL voltage -768 -400 R0
WINDOW 123 0 0 Left 0
WINDOW 39 0 0 Left 0
SYMATTR InstName V2
SYMATTR Value 9
SYMBOL res -672 -480 R0
SYMATTR InstName R4
SYMATTR Value 47k
SYMBOL res -672 -368 R0
SYMATTR InstName R5
SYMATTR Value 47k
SYMBOL voltage 80 256 R0
WINDOW 123 0 0 Left 0
WINDOW 39 0 0 Left 0
SYMATTR InstName V3
SYMATTR Value 1
SYMBOL bv -112 256 M0
WINDOW 3 40 96 Left 2
SYMATTR Value V=V(sine) * V(mult)
SYMATTR InstName B1
SYMBOL ZZZ\\OpAmp\\TL072 1136 272 R0
SYMATTR InstName U5
SYMBOL cap 2720 256 R90
WINDOW 0 0 32 VBottom 2
WINDOW 3 32 32 VTop 2
SYMATTR InstName C11
SYMATTR Value 10µ
SYMBOL res 2768 320 R0
SYMATTR InstName R18
SYMATTR Value 10k
SYMBOL res 1040 448 R0
SYMATTR InstName R19
SYMATTR Value 1Meg
SYMBOL cap 1024 272 R90
WINDOW 0 0 32 VBottom 2
WINDOW 3 32 32 VTop 2
SYMATTR InstName C12
SYMATTR Value 47n
SYMBOL voltage 1360 1120 R0
WINDOW 123 0 0 Left 0
WINDOW 39 0 0 Left 0
SYMATTR InstName V8
SYMATTR Value PULSE(0 9 0 1u 1u 10m 20m)
SYMBOL voltage 1056 1120 R0
WINDOW 123 0 0 Left 0
WINDOW 39 0 0 Left 0
SYMATTR InstName V9
SYMATTR Value 4.5
SYMBOL ZZZ\\Comparator\\LM339A_TI 1488 1056 R0
SYMATTR InstName U6
SYMBOL ZZZ\\OpAmp\\TL072 2688 528 R0
SYMATTR InstName U8
SYMBOL npn 2912 224 R0
SYMATTR InstName Q4
SYMATTR Value BC817-25
SYMBOL res 2960 368 R0
SYMATTR InstName R22
SYMATTR Value 1k
SYMBOL cap 3136 336 R90
WINDOW 0 0 32 VBottom 2
WINDOW 3 32 32 VTop 2
SYMATTR InstName C14
SYMATTR Value 10µ
SYMBOL res 3184 400 R0
SYMATTR InstName R26
SYMATTR Value 10k
SYMBOL njf 1552 432 R0
SYMATTR InstName J1
SYMATTR Value MMBF5486
SYMBOL res 1680 1072 R270
WINDOW 0 32 56 VTop 2
WINDOW 3 0 56 VBottom 2
SYMATTR InstName R20
SYMATTR Value 1k
SYMBOL res 1392 256 R90
WINDOW 0 0 56 VBottom 2
WINDOW 3 32 56 VTop 2
SYMATTR InstName R21
SYMATTR Value 22k
SYMBOL cap 1584 336 R0
SYMATTR InstName C15
SYMATTR Value 2.2µ
SYMBOL cap 1584 608 R0
SYMATTR InstName C13
SYMATTR Value 1µ
SYMBOL res 1984 544 R90
WINDOW 0 0 56 VBottom 2
WINDOW 3 32 56 VTop 2
SYMATTR InstName R27
SYMATTR Value 3.3k
SYMBOL cap 1488 256 R90
WINDOW 0 0 32 VBottom 2
WINDOW 3 32 32 VTop 2
SYMATTR InstName C1
SYMATTR Value 1µ
SYMBOL voltage 1824 592 R0
WINDOW 123 0 0 Left 0
WINDOW 39 0 0 Left 0
SYMATTR InstName V4
SYMATTR Value 4.7
SYMBOL res 1712 592 R0
SYMATTR InstName R1
SYMATTR Value 6.7k
SYMBOL res 1808 432 R0
SYMATTR InstName R2
SYMATTR Value 470k
SYMBOL res 2944 160 R90
WINDOW 0 0 56 VBottom 2
WINDOW 3 32 56 VTop 2
SYMATTR InstName R3
SYMATTR Value 1Meg
TEXT -480 528 Left 2 !.tran 50m
