Version 4
SHEET 1 4932 2324
WIRE -656 -464 -656 -496
WIRE -768 -384 -768 -416
WIRE -656 -368 -656 -384
WIRE -512 -368 -656 -368
WIRE -496 -368 -512 -368
WIRE -656 -352 -656 -368
WIRE 400 -320 400 -352
WIRE 1152 -320 400 -320
WIRE 1280 -320 1152 -320
WIRE 1696 -320 1280 -320
WIRE 1824 -320 1696 -320
WIRE -768 -272 -768 -304
WIRE 1280 -256 1280 -320
WIRE 1824 -256 1824 -320
WIRE -656 -240 -656 -272
WIRE 1152 -176 1152 -320
WIRE 1696 -176 1696 -320
WIRE 1280 -128 1280 -192
WIRE 1280 -128 1216 -128
WIRE 1824 -128 1824 -192
WIRE 1824 -128 1760 -128
WIRE -112 -64 -144 -64
WIRE -16 -64 -112 -64
WIRE 1280 -64 1280 -128
WIRE 1824 -64 1824 -128
WIRE 1152 -16 1152 -80
WIRE 1216 -16 1152 -16
WIRE 1696 -16 1696 -80
WIRE 1696 -16 1456 -16
WIRE 1760 -16 1696 -16
WIRE 1280 80 1280 32
WIRE 1696 80 1280 80
WIRE 464 128 464 96
WIRE 544 128 464 128
WIRE 976 128 624 128
WIRE 1536 128 976 128
WIRE 976 160 976 128
WIRE 1536 160 1536 128
WIRE -928 176 -960 176
WIRE -800 176 -928 176
WIRE -80 208 -112 208
WIRE -16 208 -80 208
WIRE 1152 208 1152 -16
WIRE 1456 208 1456 -16
WIRE -960 240 -960 176
WIRE 1824 240 1824 32
WIRE 1920 240 1824 240
WIRE 2064 240 2000 240
WIRE 464 256 288 256
WIRE 976 256 976 224
WIRE 976 256 544 256
WIRE 1088 256 976 256
WIRE 1536 256 1536 224
WIRE 1536 256 1520 256
WIRE -112 272 -112 208
WIRE 80 272 80 208
WIRE 416 320 384 320
WIRE 608 320 416 320
WIRE 800 320 688 320
WIRE -960 368 -960 320
WIRE 1152 368 1152 304
WIRE 1328 368 1152 368
WIRE 1456 368 1456 304
WIRE 1456 368 1328 368
WIRE -112 400 -112 352
WIRE 80 400 80 352
WIRE 288 400 288 256
WIRE 464 400 288 400
WIRE 800 400 800 320
WIRE 800 400 544 400
WIRE 1536 400 1536 256
WIRE 1536 400 800 400
WIRE 1328 432 1328 368
WIRE 1824 432 1824 240
WIRE 288 480 288 400
WIRE 608 480 464 480
WIRE 1200 480 688 480
WIRE 1264 480 1200 480
WIRE 1696 480 1696 80
WIRE 1760 480 1696 480
WIRE 464 544 464 480
WIRE 1200 544 1200 480
WIRE 1696 544 1696 480
WIRE 1328 592 1328 528
WIRE 1328 592 1264 592
WIRE 1344 592 1328 592
WIRE 1824 592 1824 528
WIRE 1824 592 1760 592
WIRE 1840 592 1824 592
WIRE 288 608 288 560
WIRE 1328 640 1328 592
WIRE 1824 640 1824 592
WIRE 464 672 464 624
WIRE 1200 784 1200 640
WIRE 1200 784 592 784
WIRE 1328 784 1328 704
WIRE 1328 784 1200 784
WIRE 1696 784 1696 640
WIRE 1696 784 1328 784
WIRE 1824 784 1824 704
WIRE 1824 784 1696 784
FLAG -768 -416 9V
FLAG -768 -272 0
FLAG -656 -496 9V
FLAG -656 -240 0
FLAG -512 -368 4.5V
FLAG -960 368 0
FLAG 80 400 0
FLAG 80 208 mult
FLAG -112 400 0
FLAG -928 176 sine
FLAG -80 208 input
FLAG -112 -64 input
FLAG 592 784 0
FLAG 400 -352 9V
FLAG 464 96 9V
FLAG 416 320 input
FLAG 464 672 0
FLAG 288 608 0
FLAG 2064 240 0
SYMBOL voltage -960 224 R0
WINDOW 123 0 0 Left 0
WINDOW 39 0 0 Left 0
SYMATTR InstName V1
SYMATTR Value SINE(4.5 0.2 3k)
SYMBOL voltage -768 -400 R0
WINDOW 123 0 0 Left 0
WINDOW 39 0 0 Left 0
SYMATTR InstName V2
SYMATTR Value 9
SYMBOL res -672 -480 R0
SYMATTR InstName R4
SYMATTR Value 47k
SYMBOL res -672 -368 R0
SYMATTR InstName R5
SYMATTR Value 47k
SYMBOL voltage 80 256 R0
WINDOW 123 0 0 Left 0
WINDOW 39 0 0 Left 0
SYMATTR InstName V3
SYMATTR Value 1
SYMBOL bv -112 256 M0
WINDOW 3 40 96 Left 2
SYMATTR Value V=V(sine) * V(mult)
SYMATTR InstName B1
SYMBOL npn 2192 400 R0
SYMATTR InstName Q1
SYMATTR Value BC847A
SYMBOL pnp 2560 528 R0
SYMATTR InstName Q2
SYMATTR Value BC857A
SYMBOL diode 2528 224 R0
SYMATTR InstName D1
SYMATTR Value 1N4148
SYMBOL pnp 1216 -80 R180
SYMATTR InstName Q3
SYMATTR Value BC857A
SYMBOL pnp 1216 32 M180
SYMATTR InstName Q4
SYMATTR Value BC857A
SYMBOL diode 1264 -256 R0
SYMATTR InstName D2
SYMATTR Value 1N4148
SYMBOL pnp 1760 -80 R180
SYMATTR InstName Q5
SYMATTR Value BC857A
SYMBOL pnp 1760 32 M180
SYMATTR InstName Q6
SYMATTR Value BC857A
SYMBOL diode 1808 -256 R0
SYMATTR InstName D3
SYMATTR Value 1N4148
SYMBOL npn 1088 208 R0
SYMATTR InstName Q7
SYMATTR Value BC847A
SYMBOL diode 960 160 R0
SYMATTR InstName D4
SYMATTR Value 1N4148
SYMBOL npn 1520 208 M0
SYMATTR InstName Q8
SYMATTR Value BC847A
SYMBOL diode 1520 160 R0
SYMATTR InstName D5
SYMATTR Value 1N4148
SYMBOL npn 1264 432 R0
SYMATTR InstName Q9
SYMATTR Value BC847A
SYMBOL npn 1264 544 M0
SYMATTR InstName Q10
SYMATTR Value BC847A
SYMBOL diode 1312 640 R0
SYMATTR InstName D6
SYMATTR Value 1N4148
SYMBOL npn 1760 432 R0
SYMATTR InstName Q11
SYMATTR Value BC847A
SYMBOL npn 1760 544 M0
SYMATTR InstName Q12
SYMATTR Value BC847A
SYMBOL diode 1808 640 R0
SYMATTR InstName D7
SYMATTR Value 1N4148
SYMBOL res 640 112 R90
WINDOW 0 0 56 VBottom 2
WINDOW 3 32 56 VTop 2
SYMATTR InstName R1
SYMATTR Value 13k
SYMBOL res 560 240 R90
WINDOW 0 0 56 VBottom 2
WINDOW 3 32 56 VTop 2
SYMATTR InstName R2
SYMATTR Value 1k
SYMBOL res 560 384 R90
WINDOW 0 0 56 VBottom 2
WINDOW 3 32 56 VTop 2
SYMATTR InstName R3
SYMATTR Value 1k
SYMBOL res 704 304 R90
WINDOW 0 0 56 VBottom 2
WINDOW 3 32 56 VTop 2
SYMATTR InstName R6
SYMATTR Value 30k
SYMBOL voltage 464 528 R0
WINDOW 123 0 0 Left 0
WINDOW 39 0 0 Left 0
SYMATTR InstName V4
SYMATTR Value 5
SYMBOL res 592 496 R270
WINDOW 0 32 56 VTop 2
WINDOW 3 0 56 VBottom 2
SYMATTR InstName R7
SYMATTR Value 30k
SYMBOL voltage 288 464 R0
WINDOW 123 0 0 Left 0
WINDOW 39 0 0 Left 0
SYMATTR InstName V5
SYMATTR Value 4.5
SYMBOL res 2016 224 R90
WINDOW 0 0 56 VBottom 2
WINDOW 3 32 56 VTop 2
SYMATTR InstName R8
SYMATTR Value 100k
TEXT -480 528 Left 2 !.tran 50m
